REMARK  Name = 
REMARK  2 active torsions:
REMARK  status: ('A' for Active; 'I' for Inactive)
REMARK    1  A    between atoms: C_7  and  C_15
REMARK    2  A    between atoms: C_10  and  C_14
REMARK                            x       y       z     vdW  Elec       q    Type
REMARK                         _______ _______ _______ _____ _____    ______ ____
ROOT
ATOM      1  C   UNL     1      -2.274  -0.542  -0.391  0.00  0.00    +0.000 A 
ATOM      2  C   UNL     1      -2.960   0.396  -1.175  0.00  0.00    +0.000 A 
ATOM      3  C   UNL     1      -1.459   2.021  -0.429  0.00  0.00    +0.000 A 
ATOM      4  S   UNL     1      -4.554  -0.164  -1.687  0.00  0.00    +0.000 S 
ATOM      5  C   UNL     1      -0.570   1.005  -0.003  0.00  0.00    +0.000 A 
ATOM      6  C   UNL     1      -0.941  -0.345  -0.024  0.00  0.00    +0.000 A 
ATOM      7  C   UNL     1       0.725   1.297   0.415  0.00  0.00    +0.000 A 
ATOM      8  C   UNL     1      -3.272  -1.528   0.216  0.00  0.00    +0.000 C 
ATOM      9  N   UNL     1      -0.035  -1.323   0.234  0.00  0.00    +0.000 NA
ATOM     10  C   UNL     1       1.236  -0.912   0.425  0.00  0.00    +0.000 A 
ATOM     11  N   UNL     1       1.642   0.345   0.617  0.00  0.00    +0.000 NA
ATOM     12  C   UNL     1      -2.589   1.708  -1.154  0.00  0.00    +0.000 A 
ATOM     13  C   UNL     1      -4.684  -0.942  -0.076  0.00  0.00    +0.000 C 
ATOM     14  C   UNL     1       2.399  -1.864   0.160  0.00  0.00    +0.000 C 
ATOM     15  C   UNL     1       1.288   2.688   0.420  0.00  0.00    +0.000 C 
ENDROOT
TORSDOF 0
